@<TRIPOS>MOLECULE
Alanine
 6 5 0 0 0
SMALL
GASTEIGER

@<TRIPOS>ATOM
      1 O           1.0433    0.0628   -0.0647 O.co2   1  ALA1       -0.2441
      2 C           2.3142    0.0628   -0.0647 C.2     1  ALA1        0.3819
      3 OXT         3.0242    0.1087   -1.2936 O.co2   1  ALA1       -0.2441
      4 CA          3.0742    0.0137    1.2508 C.3     1  ALA1        0.1944
      5 N           2.7190   -1.2145    1.9763 N.3     1  ALA1       -0.1208
      6 CB          4.5686    0.0241    0.9732 C.3     1  ALA1        0.0327
@<TRIPOS>BOND
     1     1     2   ar
     2     2     3   ar
     3     2     4    1
     4     4     5    1
     5     4     6    1
