@<TRIPOS>MOLECULE
Alanine
 13 12 0 0 0
SMALL
GASTEIGER

@<TRIPOS>ATOM
      1 O           1.0311   -0.0179    0.0933 O.2     1  ALA1       -0.2493
      2 C           2.3020   -0.0179    0.0933 C.2     1  ALA1        0.3214
      3 OXT         3.0120    0.4752    1.2199 O.3     1  ALA1       -0.4795
      4 CA          3.0620   -0.5456   -1.1126 C.3     1  ALA1        0.1004
      5 N           2.7069   -1.9542   -1.3376 N.3     1  ALA1       -0.3186
      6 CB          2.6948    0.2718   -2.3404 C.3     1  ALA1       -0.0395
      7 HXT         4.0120    0.4752    1.2199 H       1  ALA1        0.2951
      8 HA          4.1140   -0.4672   -0.9335 H       1  ALA1        0.0571
      9 H1          3.2169   -2.3084   -2.1468 H       1  ALA1        0.1189
     10 H2          2.9533   -2.5028   -0.5137 H       1  ALA1        0.1189
     11 HB1         2.9533    1.2971   -2.1766 H       1  ALA1        0.0250
     12 HB2         3.2298   -0.0997   -3.1893 H       1  ALA1        0.0250
     13 HB3         1.6428    0.1934   -2.5195 H       1  ALA1        0.0250
@<TRIPOS>BOND
     1     1     2    2
     2     2     3    1
     3     2     4    1
     4     4     5    1
     5     4     6    1
     6     3     7    1
     7     4     8    1
     8     5     9    1
     9     5    10    1
    10     6    11    1
    11     6    12    1
    12     6    13    1
