@<TRIPOS>MOLECULE
Arginine
 12 11 0 0 0
SMALL
GASTEIGER

@<TRIPOS>ATOM
      1 N           1.0788    0.0154    0.0596 N.3     1  ARG1       -0.1208
      2 CA          2.5488    0.0154    0.0596 C.3     1  ARG1        0.1944
      3 CB          3.0555   -0.0620   -1.3714 C.3     1  ARG1        0.0343
      4 CG          2.5488   -1.3400   -2.0198 C.3     1  ARG1        0.0490
      5 CD          3.0555   -1.4174   -3.4508 C.3     1  ARG1        0.2205
      6 NE          2.5655   -2.6533   -4.0779 N.pl3   1  ARG1       -0.0865
      7 CZ          2.9206   -2.9616   -5.4707 C.cat   1  ARG1        0.5346
      8 NH1         3.7657   -2.0340   -6.2363 N.pl3   1  ARG1        0.1354
      9 NH2         2.4821   -4.0678   -6.0319 N.pl3   1  ARG1        0.1354
     10 C           3.0555    1.2934    0.7081 C.2     1  ARG1        0.3819
     11 O           2.1327    2.2558    1.1965 O.co2   1  ARG1       -0.2441
     12 OXT         4.3050    1.5005    0.8132 O.co2   1  ARG1       -0.2441
@<TRIPOS>BOND
     1     1     2    1
     2     2     3    1
     3     3     4    1
     4     4     5    1
     5     5     6    1
     6     6     7    1
     7     7     8    1
     8     7     9    2
     9     2    10    1
    10    10    11   ar
    11    10    12   ar
