@<TRIPOS>MOLECULE
Arginine
 26 25 0 0 0
SMALL
GASTEIGER

@<TRIPOS>ATOM
      1 N           1.0863    0.0086   -0.0497 N.3     1  ARG1       -0.3184
      2 CA          0.5963    1.3693   -0.3132 C.3     1  ARG1        0.1033
      3 CB          1.1030    1.8368   -1.6678 C.3     1  ARG1       -0.0245
      4 CG          0.5963    0.8975   -2.7501 C.3     1  ARG1       -0.0203
      5 CD         -0.9237    0.8975   -2.7501 C.3     1  ARG1        0.0647
      6 NE         -1.4137    2.2581   -3.0135 N.pl3   1  ARG1       -0.2761
      7 CZ         -2.2588    2.5206   -4.1873 C.cat   1  ARG1        0.3762
      8 NH1        -2.7488    3.8813   -4.4507 N.pl3   1  ARG1       -0.2893
      9 NH2        -2.5766    1.5377   -5.0021 N.pl3   1  ARG1       -0.1298
     10 C          -0.9237    1.3693   -0.3132 C.2     1  ARG1        0.3217
     11 O          -1.6337    2.1754    0.6156 O.3     1  ARG1       -0.4795
     12 OXT        -1.5591    0.6478   -1.1444 O.2     1  ARG1       -0.2493
     13 H1          0.7463   -0.6218   -0.7760 H       1  ARG1        0.1190
     14 H2          2.1063    0.0086   -0.0497 H       1  ARG1        0.1190
     15 HA          0.9530    2.0305    0.4487 H       1  ARG1        0.0574
     16 HB1         0.7463    2.8272   -1.8595 H       1  ARG1        0.0286
     17 HB2         2.1730    1.8368   -1.6678 H       1  ARG1        0.0286
     18 HG1         0.9530    1.2266   -3.7037 H       1  ARG1        0.0296
     19 HG2         0.9530   -0.0930   -2.5583 H       1  ARG1        0.0296
     20 HD1        -1.2803    0.2362   -3.5119 H       1  ARG1        0.0655
     21 HD2        -1.2803    0.5683   -1.7965 H       1  ARG1        0.0655
     22 HE         -1.1673    3.0201   -2.3818 H       1  ARG1        0.2579
     23 HH11       -3.3352    4.0634   -5.2652 H       1  ARG1        0.2546
     24 HH12       -2.5024    4.6433   -3.8190 H       1  ARG1        0.2546
     25 HH2        -3.1630    1.7198   -5.8165 H       1  ARG1        0.3062
     26 H          -1.1337    2.7430    1.2696 H       1  ARG1        0.2951
@<TRIPOS>BOND
     1     1     2    1
     2     2     3    1
     3     3     4    1
     4     4     5    1
     5     5     6    1
     6     6     7    1
     7     7     8    1
     8     7     9    2
     9     2    10    1
    10    10    11    1
    11    10    12    2
    12     1    13    1
    13     1    14    1
    14     2    15    1
    15     3    16    1
    16     3    17    1
    17     4    18    1
    18     4    19    1
    19     5    20    1
    20     5    21    1
    21     6    22    1
    22     8    23    1
    23     8    24    1
    24     9    25    1
    25    11    26    1
