@<TRIPOS>MOLECULE
Aspartic_acid
 9 8 0 0 0
SMALL
GASTEIGER

@<TRIPOS>ATOM
      1 OD1         0.9232   -0.0236    0.0595 O.co2   1  ASP1       -0.2456
      2 CG          2.1941   -0.0236    0.0595 C.2     1  ASP1        0.3669
      3 OD2         2.9041    1.2054    0.0150 O.co2   1  ASP1       -0.2456
      4 CB          2.9541   -1.3391    0.1071 C.3     1  ASP1        0.1445
      5 CA          4.4485   -1.0615    0.0971 C.3     1  ASP1        0.2055
      6 N           4.8036   -0.2478    1.2687 N.3     1  ASP1       -0.1202
      7 C           5.2085   -2.3770    0.1447 C.2     1  ASP1        0.3824
      8 O           4.5730   -3.4769    0.1846 O.co2   1  ASP1       -0.2440
      9 OXT         6.6285   -2.3770    0.1447 O.co2   1  ASP1       -0.2440
@<TRIPOS>BOND
     1     1     2   ar
     2     2     3   ar
     3     2     4    1
     4     4     5    1
     5     5     6    1
     6     5     7    1
     7     7     8   ar
     8     7     9   ar
