@<TRIPOS>MOLECULE
Asparagine
 17 16 0 0 0
SMALL
GASTEIGER

@<TRIPOS>ATOM
      1 OD1         1.1274    3.9411   -0.3225 O.2     1  ASN1       -0.2760
      2 CG          0.7967    3.3965   -1.4222 C.2     1  ASN1        0.2125
      3 ND2         0.0301    4.1584   -2.4185 N.am    1  ASN1       -0.3293
      4 CB          1.1940    1.9572   -1.7072 C.3     1  ASN1        0.0493
      5 CA          2.6884    1.6873   -1.6417 C.3     1  ASN1        0.1115
      6 N           3.0435    1.2212   -0.2935 N.3     1  ASN1       -0.3180
      7 C           3.4484    2.9665   -1.9521 C.2     1  ASN1        0.3222
      8 O           4.2427    3.0092   -2.9433 O.2     1  ASN1       -0.2492
      9 OXT         3.2709    4.1140   -1.1346 O.3     1  ASN1       -0.4795
     10 HD21       -0.2353    3.7213   -3.3011 H       1  ASN1        0.1449
     11 HD22       -0.2364    5.1242   -2.2272 H       1  ASN1        0.1449
     12 HB1         0.7694    1.3160   -0.9632 H       1  ASN1        0.0379
     13 HB2         0.8319    1.6718   -2.6728 H       1  ASN1        0.0379
     14 HA          2.9469    0.9360   -2.3584 H       1  ASN1        0.0579
     15 H1          3.9674    1.5529   -0.0166 H       1  ASN1        0.1190
     16 H2          3.0288    0.2015   -0.2752 H       1  ASN1        0.1190
     17 HXT         3.7709    4.9556   -1.3388 H       1  ASN1        0.2951
@<TRIPOS>BOND
     1     1     2    2
     2     2     3   am
     3     2     4    1
     4     5     7    1
     5     7     8    2
     6     7     9    1
     7     3    10    1
     8     3    11    1
     9     4    12    1
    10     4    13    1
    11     5    14    1
    12     6    15    1
    13     6    16    1
    14     9    17    1
    15     5     6    1
    16     5     4    1
