@<TRIPOS>MOLECULE
Aspartic_acid
 16 15 0 0 0
SMALL
GASTEIGER

@<TRIPOS>ATOM
      1 OD1         1.0015   -0.0502    0.0865 O.2     1  ASP1       -0.2509
      2 CG          2.2724   -0.0502    0.0865 C.2     1  ASP1        0.3067
      3 OD2         2.9824   -0.6234   -1.0015 O.3     1  ASP1       -0.4806
      4 CB          3.0324    0.5635    1.2511 C.3     1  ASP1        0.0702
      5 CA          2.6652    2.0330    1.3777 C.3     1  ASP1        0.1133
      6 N           1.2200    2.1582    1.6153 N.3     1  ASP1       -0.3180
      7 C           3.4252    2.6466    2.5423 C.2     1  ASP1        0.3223
      8 O           4.2195    3.6182    2.3414 O.2     1  ASP1       -0.2492
      9 OXT         3.2477    2.1344    3.8547 O.3     1  ASP1       -0.4795
     10 HD2         3.9824   -0.6234   -1.0015 H       1  ASP1        0.2951
     11 HB1         2.7739    0.0521    2.1547 H       1  ASP1        0.0398
     12 HB2         4.0844    0.4723    1.0781 H       1  ASP1        0.0398
     13 HA          2.9237    2.5444    0.4740 H       1  ASP1        0.0579
     14 H1          0.9736    3.1444    1.7003 H       1  ASP1        0.1190
     15 H2          0.7100    1.7464    0.8338 H       1  ASP1        0.1190
     16 HXT         3.7477    2.5381    4.6209 H       1  ASP1        0.2951
@<TRIPOS>BOND
     1     1     2    2
     2     2     3    1
     3     2     4    1
     4     4     5    1
     5     5     6    1
     6     5     7    1
     7     7     8    2
     8     7     9    1
     9     3    10    1
    10     4    11    1
    11     4    12    1
    12     5    13    1
    13     6    14    1
    14     6    15    1
    15     9    16    1
