@<TRIPOS>MOLECULE
Asparagine
 9 8 0 0 0
SMALL
GASTEIGER

@<TRIPOS>ATOM
      1 OD1         6.3334   -0.1261   -0.6399 O.2     1  ASN1       -0.2716
      2 CG          6.0418    0.8339    0.1402 C.2     1  ASN1        0.2628
      3 ND2         6.9081    2.0200    0.2018 N.am    1  ASN1       -0.0877
      4 CB          4.7974    0.7558    1.0095 C.3     1  ASN1        0.1190
      5 CA          4.4302   -0.6928    0.7319 C.3     1  ASN1        0.2035
      6 N           2.9849   -0.8780    0.9265 N.3     1  ASN1       -0.1203
      7 C           5.1902   -1.6000    1.6858 C.2     1  ASN1        0.3824
      8 O           4.5547   -2.3584    2.4834 O.co2   1  ASN1       -0.2440
      9 OXT         6.6102   -1.6000    1.6858 O.co2   1  ASN1       -0.2440
@<TRIPOS>BOND
     1     1     2    2
     2     2     3   am
     3     2     4    1
     4     5     7    1
     5     7     8   ar
     6     7     9   ar
     7     5     6    1
     8     5     4    1
