@<TRIPOS>MOLECULE
Cysteine
 14 13 0 0 0
SMALL
GASTEIGER

@<TRIPOS>ATOM
      1 CB          0.9204    0.0595    0.0115 C.3     1  CYS1        0.0163
      2 CA          0.4138   -1.2930   -0.4624 C.3     1  CYS1        0.1120
      3 C           0.9204   -2.3796    0.4720 C.2     1  CYS1        0.3225
      4 O           0.0946   -3.1120    1.1019 O.2     1  CYS1       -0.2492
      5 OXT         2.3165   -2.5763    0.6412 O.3     1  CYS1       -0.4795
      6 N          -1.0562   -1.2930   -0.4624 N.3     1  CYS1       -0.3178
      7 SG          0.3171    0.3761    1.6883 S.3     1  CYS1       -0.1762
      8 HB1         0.5638    0.8244   -0.6463 H       1  CYS1        0.0394
      9 HB2         1.9904    0.0595    0.0115 H       1  CYS1        0.0394
     10 HA          0.7704   -1.4802   -1.4536 H       1  CYS1        0.0582
     11 HXT         2.6499   -3.2911    1.2559 H       1  CYS1        0.2951
     12 H1         -1.3962   -2.2006   -0.7803 H       1  CYS1        0.1190
     13 H2         -1.3962   -1.1145    0.4826 H       1  CYS1        0.1190
     14 HG          0.7704   -0.5961    2.5243 H       1  CYS1        0.1017
@<TRIPOS>BOND
     1     1     2    1
     2     2     3    1
     3     3     4    2
     4     3     5    1
     5     2     6    1
     6     1     7    1
     7     1     8    1
     8     1     9    1
     9     2    10    1
    10     5    11    1
    11     6    12    1
    12     6    13    1
    13     7    14    1
