@<TRIPOS>MOLECULE
Cysteine
 7 6 0 0 0
SMALL
GASTEIGER

@<TRIPOS>ATOM
      1 CB          0.9701    0.0299    0.0906 C.3     1  CYS1        0.0992
      2 CA          0.4634    0.6413   -1.2055 C.3     1  CYS1        0.2059
      3 C           0.9701   -0.1755   -2.3830 C.2     1  CYS1        0.3828
      4 O           0.1442   -0.7261   -3.1767 O.co2   1  CYS1       -0.2440
      5 OXT         2.3662   -0.3234   -2.5962 O.co2   1  CYS1       -0.2440
      6 N          -1.0066    0.6413   -1.2055 N.3     1  CYS1       -0.1198
      7 SG          2.7801    0.0299    0.0906 S.3     1  CYS1       -0.0800
@<TRIPOS>BOND
     1     1     2    1
     2     2     3    1
     3     3     4   ar
     4     3     5   ar
     5     2     6    1
     6     1     7    1
