@<TRIPOS>MOLECULE
Glutamic_acid
 19 18 0 0 0
SMALL
GASTEIGER

@<TRIPOS>ATOM
      1 CB          0.9581    0.0718    0.0556 C.3     1  GLU1       -0.0173
      2 CG          0.4514   -1.1417   -0.7067 C.3     1  GLU1        0.0467
      3 CD          0.9581   -2.4086   -0.0369 C.2     1  GLU1        0.3048
      4 OE1         0.1322   -3.2626    0.4146 O.2     1  GLU1       -0.2510
      5 OE2         2.3541   -2.6380    0.0844 O.3     1  GLU1       -0.4806
      6 CA          0.4514    0.0184    1.4876 C.3     1  GLU1        0.1037
      7 C           0.9581    1.2319    2.2499 C.2     1  GLU1        0.3217
      8 O           0.1322    2.0499    2.7637 O.2     1  GLU1       -0.2493
      9 OXT         2.3542    1.4516    2.3879 O.3     1  GLU1       -0.4795
     10 N          -1.0186    0.0184    1.4876 N.3     1  GLU1       -0.3184
     11 HB1         0.6014    0.9636   -0.4159 H       1  GLU1        0.0291
     12 HB2         2.0281    0.0718    0.0556 H       1  GLU1        0.0291
     13 HG1        -0.6186   -1.1417   -0.7067 H       1  GLU1        0.0378
     14 HG2         0.8081   -1.1042   -1.7148 H       1  GLU1        0.0378
     15 HE2         2.6875   -3.4715    0.5251 H       1  GLU1        0.2951
     16 HA          0.8081   -0.8734    1.9592 H       1  GLU1        0.0574
     17 HXT         2.6875    2.2500    2.8894 H       1  GLU1        0.2951
     18 H1         -1.3586   -0.0174    2.4486 H       1  GLU1        0.1190
     19 H2         -1.3586    0.8686    1.0382 H       1  GLU1        0.1190
@<TRIPOS>BOND
     1     1     2    1
     2     2     3    1
     3     3     4    2
     4     3     5    1
     5     1     6    1
     6     6     7    1
     7     7     8    2
     8     7     9    1
     9     6    10    1
    10     1    11    1
    11     1    12    1
    12     2    13    1
    13     2    14    1
    14     5    15    1
    15     6    16    1
    16     9    17    1
    17    10    18    1
    18    10    19    1
