@<TRIPOS>MOLECULE
Glutamine
 10 9 0 0 0
SMALL
GASTEIGER

@<TRIPOS>ATOM
      1 OE1         1.0602    0.0086    0.0794 O.2     1  GLN1       -0.2717
      2 CD          2.3311    0.0086    0.0794 C.2     1  GLN1        0.2608
      3 NE2         3.0661    0.8047   -0.9140 N.am    1  GLN1       -0.0878
      4 CG          3.0911   -0.8147    1.1065 C.3     1  GLN1        0.0906
      5 CB          4.5856   -0.6410    0.8898 C.3     1  GLN1        0.0403
      6 CA          5.3456   -1.4642    1.9169 C.3     1  GLN1        0.1948
      7 N           4.9904   -2.8829    1.7678 N.3     1  GLN1       -0.1208
      8 C           6.8400   -1.2905    1.7002 C.2     1  GLN1        0.3819
      9 O           7.2636   -0.5412    0.7652 O.co2   1  GLN1       -0.2441
     10 OXT         7.7627   -1.9655    2.5424 O.co2   1  GLN1       -0.2441
@<TRIPOS>BOND
     1     1     2    2
     2     2     3   am
     3     2     4    1
     4     4     5    1
     5     5     6    1
     6     6     7    1
     7     6     8    1
     8     8     9   ar
     9     8    10   ar
