@<TRIPOS>MOLECULE
Glutamic_acid
 10 9 0 0 0
SMALL
GASTEIGER

@<TRIPOS>ATOM
      1 CB          0.9626   -0.0889    0.0264 C.3     1  GLU1        0.0424
      2 CG          0.4559    0.6951   -1.1732 C.3     1  GLU1        0.1161
      3 CD         -1.0641    0.6951   -1.1732 C.2     1  GLU1        0.3649
      4 OE1        -1.6995    0.0930   -0.2518 O.co2   1  GLU1       -0.2457
      5 OE2        -1.7741    1.3679   -2.2026 O.co2   1  GLU1       -0.2457
      6 CA          2.4826   -0.0889    0.0264 C.3     1  GLU1        0.1949
      7 C           2.9892   -0.8729    1.2261 C.2     1  GLU1        0.3819
      8 O           3.7199   -1.8982    1.0526 O.co2   1  GLU1       -0.2441
      9 OXT         2.6462   -0.4597    2.5406 O.co2   1  GLU1       -0.2441
     10 N           2.9726   -0.7145   -1.2102 N.3     1  GLU1       -0.1208
@<TRIPOS>BOND
     1     1     2    1
     2     2     3    1
     3     3     4   ar
     4     3     5   ar
     5     1     6    1
     6     6     7    1
     7     7     8   ar
     8     7     9   ar
     9     6    10    1
