@<TRIPOS>MOLECULE
Glutamine
 20 19 0 0 0
SMALL
GASTEIGER

@<TRIPOS>ATOM
      1 OE1         0.9396   -0.0645    0.0468 O.2     1  GLN1       -0.2760
      2 CD          2.2105   -0.0645    0.0468 C.2     1  GLN1        0.2105
      3 NE2         2.9455    0.9750   -0.6881 N.am    1  GLN1       -0.3293
      4 CG          2.9705   -1.1393    0.8067 C.3     1  GLN1        0.0257
      5 CB          2.6032   -1.0737    2.2802 C.3     1  GLN1       -0.0191
      6 CA          1.1088   -1.3005    2.4406 C.3     1  GLN1        0.1037
      7 N           0.7537   -2.6228    1.9055 N.3     1  GLN1       -0.3184
      8 C           0.7416   -1.2348    3.9141 C.2     1  GLN1        0.3217
      9 O          -0.0896   -0.3651    4.3237 O.2     1  GLN1       -0.2493
     10 OXT         1.3273   -2.1453    4.8330 O.3     1  GLN1       -0.4795
     11 HE21        3.9655    0.9750   -0.6881 H       1  GLN1        0.1449
     12 HE22        2.4355    1.6963   -1.1981 H       1  GLN1        0.1449
     13 HG1         2.7120   -2.1018    0.4173 H       1  GLN1        0.0359
     14 HG2         4.0224   -0.9797    0.6938 H       1  GLN1        0.0359
     15 HB1         3.1382   -1.8303    2.8152 H       1  GLN1        0.0290
     16 HB2         2.8617   -0.1112    2.6697 H       1  GLN1        0.0290
     17 HA          0.5738   -0.5438    1.9056 H       1  GLN1        0.0574
     18 H1         -0.2491   -2.7750    2.0131 H       1  GLN1        0.1190
     19 H2          1.0001   -2.6668    0.9167 H       1  GLN1        0.1190
     20 HXT         1.0857   -2.1021    5.8024 H       1  GLN1        0.2951
@<TRIPOS>BOND
     1     1     2    2
     2     2     3   am
     3     2     4    1
     4     4     5    1
     5     5     6    1
     6     6     7    1
     7     6     8    1
     8     8     9    2
     9     8    10    1
    10     3    11    1
    11     3    12    1
    12     4    13    1
    13     4    14    1
    14     5    15    1
    15     5    16    1
    16     6    17    1
    17     7    18    1
    18     7    19    1
    19    10    20    1
