@<TRIPOS>MOLECULE
Glycine
 10 9 0 0 0
SMALL
GASTEIGER

@<TRIPOS>ATOM
      1 CA          0.9335    0.0477   -0.0575 C.3     1  GLY1        0.0918
      2 C           0.4268   -0.2492   -1.4594 C.2     1  GLY1        0.3185
      3 O          -0.3038   -1.2678   -1.6686 O.2     1  GLY1       -0.2496
      4 OXT         0.7699    0.6115   -2.5355 O.3     1  GLY1       -0.4797
      5 N           0.4435   -0.9829    0.8691 N.3     1  GLY1       -0.3209
      6 HA1         0.5768    1.0069    0.2550 H       1  GLY1        0.0537
      7 HA2         2.0035    0.0477   -0.0575 H       1  GLY1        0.0537
      8 HXT         0.4365    0.4162   -3.4578 H       1  GLY1        0.2951
      9 H1         -0.5765   -0.9829    0.8691 H       1  GLY1        0.1187
     10 H2          0.7835   -1.8973    0.5713 H       1  GLY1        0.1187
@<TRIPOS>BOND
     1     1     2    1
     2     2     3    2
     3     2     4    1
     4     1     5    1
     5     1     6    1
     6     1     7    1
     7     4     8    1
     8     5     9    1
     9     5    10    1
