@<TRIPOS>MOLECULE
Glycine
 5 4 0 0 0
SMALL
GASTEIGER

@<TRIPOS>ATOM
      1 CA          1.0302   -0.0610   -0.0733 C.3     1  GLY1        0.2227
      2 C           0.5236   -1.2116    0.7810 C.2     1  GLY1        0.3839
      3 O           1.3494   -1.9872    1.3569 O.co2   1  GLY1       -0.2440
      4 OXT        -0.8725   -1.4200    0.9357 O.co2   1  GLY1       -0.2440
      5 N           2.5002   -0.0610   -0.0733 N.3     1  GLY1       -0.1186
@<TRIPOS>BOND
     1     1     2    1
     2     2     3   ar
     3     2     4   ar
     4     1     5    1
