@<TRIPOS>MOLECULE
Histidine
 11 11 0 0 0
SMALL
GASTEIGER

@<TRIPOS>ATOM
      1 O           4.4604   -1.9157   -2.0184 O.co2   1  HIS1       -0.2440
      2 C           3.8447   -1.5220   -0.9786 C.2     1  HIS1        0.3823
      3 CA          2.9709   -0.2982   -1.1999 C.3     1  HIS1        0.2003
      4 CB          2.2109    0.0194    0.0776 C.3     1  HIS1        0.0780
      5 CG          3.1055    0.8851    0.9497 C.ar    1  HIS1        0.0819
      6 CD2         4.3686    1.2844    0.6296 C.ar    1  HIS1        0.1154
      7 NE2         4.8198    2.0358    1.6940 N.ar    1  HIS1       -0.2212
      8 CE1         3.8056    2.0368    2.6272 C.ar    1  HIS1        0.1986
      9 ND1         2.7605    1.3673    2.2160 N.ar    1  HIS1       -0.2268
     10 N           2.0156   -0.5678   -2.2842 N.3     1  HIS1       -0.1204
     11 OXT         4.3923   -1.7711    0.3077 O.co2   1  HIS1       -0.2440
@<TRIPOS>BOND
     1     1     2   ar
     2     4     5    1
     3     5     6   ar
     4     6     7   ar
     5     7     8   ar
     6     8     9   ar
     7     5     9   ar
     8     3    10    1
     9     2    11   ar
    10     3     4    1
    11     3     2    1
