@<TRIPOS>MOLECULE
Histidine
 20 20 0 0 0
SMALL
GASTEIGER

@<TRIPOS>ATOM
      1 O           3.8604    0.8967   -1.9401 O.2     1  HIS1       -0.2492
      2 C           3.8620   -0.3670   -1.8050 C.2     1  HIS1        0.3221
      3 CA          2.9882   -0.9984   -0.7335 C.3     1  HIS1        0.1087
      4 CB          2.2282    0.0902    0.0068 C.3     1  HIS1        0.0166
      5 CG          3.0898    1.2090    0.5691 C.ar    1  HIS1        0.0608
      6 CD2         3.6964    2.2178   -0.1176 C.ar    1  HIS1        0.0243
      7 NE2         4.4088    2.9463    0.8113 N.ar    1  HIS1       -0.3506
      8 CE1         4.2153    2.3237    2.0255 C.ar    1  HIS1        0.0936
      9 ND1         3.4257    1.2865    1.9242 N.ar    1  HIS1       -0.2408
     10 N           3.8333   -1.7377    0.2153 N.3     1  HIS1       -0.3181
     11 OXT         4.6351   -1.1738   -2.6814 O.3     1  HIS1       -0.4795
     12 HA          2.2929   -1.6709   -1.1908 H       1  HIS1        0.0578
     13 HB1         1.5318    0.4957   -0.6972 H       1  HIS1        0.0349
     14 HB2         1.6944   -0.3840    0.8038 H       1  HIS1        0.0349
     15 HD2         3.6324    2.4070   -1.1688 H       1  HIS1        0.0825
     16 HE2         4.9684    3.7807    0.6348 H       1  HIS1        0.1662
     17 HE1         4.6588    2.6505    2.9428 H       1  HIS1        0.1027
     18 H1          4.3433   -2.4681   -0.2815 H       1  HIS1        0.1190
     19 H2          4.4961   -1.0966    0.6512 H       1  HIS1        0.1190
     20 HXT         4.6364   -2.1681   -2.5751 H       1  HIS1        0.2951
@<TRIPOS>BOND
     1     1     2    2
     2     4     5    1
     3     5     6   ar
     4     6     7   ar
     5     7     8   ar
     6     8     9   ar
     7     5     9   ar
     8     3    10    1
     9     2    11    1
    10     3    12    1
    11     4    13    1
    12     4    14    1
    13     6    15    1
    14     7    16    1
    15     8    17    1
    16    10    18    1
    17    10    19    1
    18    11    20    1
    19     3     4    1
    20     3     2    1
