@<TRIPOS>MOLECULE
Isoleucine
 22 21 0 0 0
SMALL
GASTEIGER

@<TRIPOS>ATOM
      1 CD1         0.1468    2.2345   -0.0496 C.3     1  ILE1       -0.0650
      2 CG1         0.4794    2.6012    1.3875 C.3     1  ILE1       -0.0514
      3 CB          0.9861    1.3706    2.1219 C.3     1  ILE1       -0.0185
      4 CG2         0.4794    0.1193    1.4234 C.3     1  ILE1       -0.0605
      5 CA          0.4794    1.3913    3.5549 C.3     1  ILE1        0.1058
      6 C           0.9861    0.1607    4.2893 C.2     1  ILE1        0.3220
      7 O           1.7167    0.2923    5.3208 O.2     1  ILE1       -0.2492
      8 OXT         0.6430   -1.1359    3.8228 O.3     1  ILE1       -0.4795
      9 N           0.9694    2.6015    4.2304 N.3     1  ILE1       -0.3182
     10 HD11        1.0232    1.8564   -0.5332 H       1  ILE1        0.0230
     11 HD12       -0.1999    3.1038   -0.5684 H       1  ILE1        0.0230
     12 HD13       -0.6170    1.4853   -0.0589 H       1  ILE1        0.0230
     13 HG11        1.2432    3.3504    1.3969 H       1  ILE1        0.0266
     14 HG12       -0.3970    2.9793    1.8711 H       1  ILE1        0.0266
     15 HB          2.0561    1.3706    2.1219 H       1  ILE1        0.0318
     16 HG21        1.2433   -0.6299    1.4142 H       1  ILE1        0.0233
     17 HG22       -0.3766   -0.2505    1.9483 H       1  ILE1        0.0233
     18 HG23        0.2044    0.3607    0.4179 H       1  ILE1        0.0233
     19 HA         -0.5906    1.3913    3.5549 H       1  ILE1        0.0577
     20 HXT         0.9764   -1.9454    4.3060 H       1  ILE1        0.2951
     21 H1          0.6294    2.6154    5.1920 H       1  ILE1        0.1190
     22 H2          1.9894    2.6015    4.2304 H       1  ILE1        0.1190
@<TRIPOS>BOND
     1     1     2    1
     2     3     5    1
     3     5     6    1
     4     6     7    2
     5     6     8    1
     6     5     9    1
     7     1    10    1
     8     1    11    1
     9     1    12    1
    10     2    13    1
    11     2    14    1
    12     3    15    1
    13     4    16    1
    14     4    17    1
    15     4    18    1
    16     5    19    1
    17     8    20    1
    18     9    21    1
    19     9    22    1
    20     3     4    1
    21     3     2    1
