@<TRIPOS>MOLECULE
Isoleucine
 9 8 0 0 0
SMALL
GASTEIGER

@<TRIPOS>ATOM
      1 CD1         1.1322   -2.7006    1.2897 C.3     1  ILE1        0.0001
      2 CG1         2.4479   -2.4052    0.5883 C.3     1  ILE1        0.0020
      3 CB          2.9546   -1.0187    0.9510 C.3     1  ILE1        0.0287
      4 CG2         2.4479   -0.0114   -0.0684 C.3     1  ILE1        0.0021
      5 CA          4.4746   -1.0187    0.9510 C.3     1  ILE1        0.1943
      6 C           4.9813    0.3677    1.3136 C.2     1  ILE1        0.3819
      7 O           5.7119    0.5286    2.3410 O.co2   1  ILE1       -0.2441
      8 OXT         4.6382    1.4831    0.5046 O.co2   1  ILE1       -0.2441
      9 N           4.9646   -1.9929    1.9368 N.3     1  ILE1       -0.1208
@<TRIPOS>BOND
     1     1     2    1
     2     3     5    1
     3     5     6    1
     4     6     7   ar
     5     6     8   ar
     6     5     9    1
     7     3     4    1
     8     3     2    1
