@<TRIPOS>MOLECULE
Leucine
 22 21 0 0 0
SMALL
GASTEIGER

@<TRIPOS>ATOM
      1 CD1         0.9256    0.0559   -0.0367 C.3     1  LEU1       -0.0626
      2 CG          0.4190    1.4881    0.0144 C.3     1  LEU1       -0.0448
      3 CD2         0.9256    2.2484   -1.2003 C.3     1  LEU1       -0.0626
      4 CB         -1.1010    1.4881    0.0144 C.3     1  LEU1       -0.0250
      5 CA         -1.6077    0.7277    1.2292 C.3     1  LEU1        0.1035
      6 C          -1.1010    1.3995    2.4950 C.2     1  LEU1        0.3217
      7 O          -1.9269    1.8524    3.3483 O.2     1  LEU1       -0.2493
      8 OXT         0.2951    1.5212    2.7242 O.3     1  LEU1       -0.4795
      9 N          -3.0777    0.7277    1.2292 N.3     1  LEU1       -0.3184
     10 HD11        0.5690   -0.4170   -0.9278 H       1  LEU1        0.0232
     11 HD12        0.5690   -0.4793    0.8184 H       1  LEU1        0.0232
     12 HD13        1.9956    0.0559   -0.0367 H       1  LEU1        0.0232
     13 HG          0.7756    1.9610    0.9055 H       1  LEU1        0.0296
     14 HD21        0.5690    1.7755   -2.0914 H       1  LEU1        0.0232
     15 HD22        0.5690    3.2566   -1.1643 H       1  LEU1        0.0232
     16 HD23        1.9956    2.2484   -1.2003 H       1  LEU1        0.0232
     17 HB1        -1.4577    2.4962    0.0504 H       1  LEU1        0.0288
     18 HB2        -1.4577    1.0151   -0.8767 H       1  LEU1        0.0288
     19 HA         -1.2510   -0.2804    1.1932 H       1  LEU1        0.0574
     20 HXT         0.6284    1.9632    3.5570 H       1  LEU1        0.2951
     21 H1         -3.4177    0.2175    2.0443 H       1  LEU1        0.1190
     22 H2         -3.4177    1.6888    1.2635 H       1  LEU1        0.1190
@<TRIPOS>BOND
     1     1     2    1
     2     2     3    1
     3     2     4    1
     4     4     5    1
     5     5     6    1
     6     6     7    2
     7     6     8    1
     8     5     9    1
     9     1    10    1
    10     1    11    1
    11     1    12    1
    12     2    13    1
    13     3    14    1
    14     3    15    1
    15     3    16    1
    16     4    17    1
    17     4    18    1
    18     5    19    1
    19     8    20    1
    20     9    21    1
    21     9    22    1
