@<TRIPOS>MOLECULE
Leucine
 9 8 0 0 0
SMALL
GASTEIGER

@<TRIPOS>ATOM
      1 CD1         1.0393   -0.0708   -0.0586 C.3     1  LEU1        0.0001
      2 CG          2.5593   -0.0708   -0.0586 C.3     1  LEU1        0.0020
      3 CD2         3.0660    0.1100   -1.4803 C.3     1  LEU1        0.0001
      4 CB          3.0660    1.0699    0.8088 C.3     1  LEU1        0.0306
      5 CA          4.5860    1.0699    0.8088 C.3     1  LEU1        0.1943
      6 C           5.0926    1.2508   -0.6128 C.2     1  LEU1        0.3819
      7 O           5.8233    2.2488   -0.9049 O.co2   1  LEU1       -0.2441
      8 OXT         4.7496    0.3046   -1.6146 O.co2   1  LEU1       -0.2441
      9 N           5.0760    2.1731    1.6477 N.3     1  LEU1       -0.1208
@<TRIPOS>BOND
     1     1     2    1
     2     2     3    1
     3     2     4    1
     4     4     5    1
     5     5     6    1
     6     6     7   ar
     7     6     8   ar
     8     5     9    1
