@<TRIPOS>MOLECULE
Lysine
 24 23 0 0 0
SMALL
GASTEIGER

@<TRIPOS>ATOM
      1 NZ          1.0378    0.0252   -0.0891 N.3     1  LYS1       -0.3300
      2 CE          0.5478    1.3431   -0.5179 C.3     1  LYS1       -0.0069
      3 CD          1.0545    1.6405   -1.9197 C.3     1  LYS1       -0.0406
      4 CG          0.5478    0.5752   -2.8782 C.3     1  LYS1       -0.0500
      5 CB         -0.9722    0.5752   -2.8782 C.3     1  LYS1       -0.0273
      6 CA         -1.4788    1.9379   -3.3216 C.3     1  LYS1        0.1032
      7 N          -0.9888    2.2255   -4.6774 N.3     1  LYS1       -0.3184
      8 C          -2.9988    1.9379   -3.3216 C.2     1  LYS1        0.3217
      9 O          -3.6343    2.7561   -2.5855 O.2     1  LYS1       -0.2493
     10 OXT        -3.7088    1.0237   -4.1441 O.3     1  LYS1       -0.4795
     11 HZ1         0.6978   -0.6897   -0.7323 H       1  LYS1        0.1182
     12 HZ2         2.0578    0.0252   -0.0891 H       1  LYS1        0.1182
     13 HE1        -0.5222    1.3431   -0.5179 H       1  LYS1        0.0422
     14 HE2         0.9045    2.0931    0.1569 H       1  LYS1        0.0422
     15 HD1         0.6978    2.5998   -2.2319 H       1  LYS1        0.0277
     16 HD2         2.1245    1.6405   -1.9197 H       1  LYS1        0.0277
     17 HG1         0.9045    0.7845   -3.8651 H       1  LYS1        0.0266
     18 HG2         0.9045   -0.3841   -2.5661 H       1  LYS1        0.0266
     19 HB1        -1.3288   -0.1748   -3.5530 H       1  LYS1        0.0286
     20 HB2        -1.3288    0.3658   -1.8914 H       1  LYS1        0.0286
     21 HA         -1.1222    2.6879   -2.6469 H       1  LYS1        0.0574
     22 H1         -1.3288    3.1400   -4.9749 H       1  LYS1        0.1190
     23 H2          0.0312    2.2255   -4.6774 H       1  LYS1        0.1190
     24 HXT        -4.7088    1.0237   -4.1442 H       1  LYS1        0.2951
@<TRIPOS>BOND
     1     1     2    1
     2     2     3    1
     3     3     4    1
     4     4     5    1
     5     5     6    1
     6     6     7    1
     7     6     8    1
     8     8     9    2
     9     8    10    1
    10     1    11    1
    11     1    12    1
    12     2    13    1
    13     2    14    1
    14     3    15    1
    15     3    16    1
    16     4    17    1
    17     4    18    1
    18     5    19    1
    19     5    20    1
    20     6    21    1
    21     7    22    1
    22     7    23    1
    23    10    24    1
