@<TRIPOS>MOLECULE
Lysine
 10 9 0 0 0
SMALL
GASTEIGER

@<TRIPOS>ATOM
      1 NZ          0.9741    0.0513    0.0818 N.3     1  LYS1       -0.1314
      2 CE          2.4441    0.0513    0.0818 C.3     1  LYS1        0.1093
      3 CD          2.9508   -0.6742   -1.1540 C.3     1  LYS1        0.0206
      4 CG          4.4708   -0.6742   -1.1540 C.3     1  LYS1        0.0036
      5 CB          4.9774   -1.3998   -2.3898 C.3     1  LYS1        0.0307
      6 CA          6.4974   -1.3998   -2.3898 C.3     1  LYS1        0.1943
      7 N           6.9874   -2.0840   -1.1845 N.3     1  LYS1       -0.1208
      8 C           7.0041   -2.1254   -3.6256 C.2     1  LYS1        0.3819
      9 O           6.1782   -2.6145   -4.4586 O.co2   1  LYS1       -0.2441
     10 OXT         8.4002   -2.2568   -3.8494 O.co2   1  LYS1       -0.2441
@<TRIPOS>BOND
     1     1     2    1
     2     2     3    1
     3     3     4    1
     4     4     5    1
     5     5     6    1
     6     6     7    1
     7     6     8    1
     8     8     9   ar
     9     8    10   ar
