@<TRIPOS>MOLECULE
Methionine
 9 8 0 0 0
SMALL
GASTEIGER

@<TRIPOS>ATOM
      1 CE          4.8057    5.4503   -3.2075 C.3     1  MET1        0.0692
      2 SD          4.3359    3.8539   -3.9194 S.3     1  MET1       -0.1393
      3 CG          5.3388    2.5433   -3.1762 C.3     1  MET1        0.0597
      4 CB          4.9442    1.2026   -3.7741 C.3     1  MET1        0.0422
      5 CA          5.4509   -0.0439   -3.0672 C.3     1  MET1        0.1952
      6 N           4.9609   -0.0547   -1.6813 N.3     1  MET1       -0.1208
      7 C           6.9709   -0.0439   -3.0672 C.2     1  MET1        0.3819
      8 O           7.6063   -0.0525   -1.9666 O.co2   1  MET1       -0.2441
      9 OXT         7.6809   -0.0344   -4.2969 O.co2   1  MET1       -0.2441
@<TRIPOS>BOND
     1     1     2    1
     2     2     3    1
     3     3     4    1
     4     5     7    1
     5     7     8   ar
     6     7     9   ar
     7     5     6    1
     8     5     4    1
