@<TRIPOS>MOLECULE
Methionine
 20 19 0 0 0
SMALL
GASTEIGER

@<TRIPOS>ATOM
      1 CE          0.6645    1.8300   -0.3887 C.3     1  MET1       -0.0181
      2 SD          2.4745    1.8300   -0.3887 S.3     1  MET1       -0.1641
      3 CG          3.0778    0.7999    0.9719 C.3     1  MET1       -0.0047
      4 CB          2.5711    1.3569    2.2923 C.3     1  MET1       -0.0183
      5 CA          1.0511    1.3569    2.2923 C.3     1  MET1        0.1040
      6 N           0.5611    2.6418    1.7729 N.3     1  MET1       -0.3184
      7 C           0.5445    1.1576    3.7114 C.2     1  MET1        0.3217
      8 O          -0.1862    0.1559    3.9905 O.2     1  MET1       -0.2493
      9 OXT         0.8875    2.0907    4.7254 O.3     1  MET1       -0.4795
     10 HE1         0.3078    2.4390   -1.1929 H       1  MET1        0.0340
     11 HE2         0.3078    2.2221    0.5409 H       1  MET1        0.0340
     12 HE3         0.3078    0.8290   -0.5139 H       1  MET1        0.0340
     13 HG1         2.7212   -0.2011    0.8467 H       1  MET1        0.0377
     14 HG2         4.1478    0.7999    0.9719 H       1  MET1        0.0377
     15 HB1         2.9278    0.7479    3.0966 H       1  MET1        0.0293
     16 HB2         2.9278    2.3579    2.4175 H       1  MET1        0.0293
     17 HA          0.6945    0.5618    1.6713 H       1  MET1        0.0574
     18 H1         -0.1689    2.9241    2.4269 H       1  MET1        0.1190
     19 H2          0.1469    2.4597    0.8588 H       1  MET1        0.1190
     20 HXT         0.5542    1.9596    5.6590 H       1  MET1        0.2951
@<TRIPOS>BOND
     1     1     2    1
     2     2     3    1
     3     3     4    1
     4     5     7    1
     5     7     8    2
     6     7     9    1
     7     1    10    1
     8     1    11    1
     9     1    12    1
    10     3    13    1
    11     3    14    1
    12     4    15    1
    13     4    16    1
    14     5    17    1
    15     6    18    1
    16     6    19    1
    17     9    20    1
    18     5     6    1
    19     5     4    1
