@<TRIPOS>MOLECULE
Phenylalanine
 12 12 0 0 0
SMALL
GASTEIGER

@<TRIPOS>ATOM
      1 N           1.0015   -0.0632    0.0775 N.3     1  PHE1       -0.1205
      2 CA          2.4715   -0.0632    0.0775 C.3     1  PHE1        0.1986
      3 CB          2.9781   -1.4806   -0.1339 C.3     1  PHE1        0.0569
      4 CG          2.4715   -2.3723    0.9880 C.ar    1  PHE1       -0.0202
      5 CD1         2.0847   -1.8294    2.2021 C.ar    1  PHE1       -0.0042
      6 CE1         2.1043   -2.7519    3.2748 C.ar    1  PHE1       -0.0003
      7 CZ          2.1229   -4.0648    3.1334 C.ar    1  PHE1       -0.0000
      8 CE2         2.4457   -4.5382    1.8919 C.ar    1  PHE1       -0.0003
      9 CD2         2.5725   -3.6859    0.8217 C.ar    1  PHE1       -0.0042
     10 C           2.9781    0.8285   -1.0444 C.2     1  PHE1        0.3822
     11 O           2.0554    1.5001   -1.8893 O.co2   1  PHE1       -0.2440
     12 OXT         4.2276    0.9730   -1.2262 O.co2   1  PHE1       -0.2440
@<TRIPOS>BOND
     1     1     2    1
     2     2     3    1
     3     3     4    1
     4     4     5   ar
     5     5     6   ar
     6     6     7   ar
     7     7     8   ar
     8     8     9   ar
     9     4     9   ar
    10     2    10    1
    11    10    11   ar
    12    10    12   ar
