@<TRIPOS>MOLECULE
Phenylalanine
 23 23 0 0 0
SMALL
GASTEIGER

@<TRIPOS>ATOM
      1 N           0.9606    0.0498    0.0772 N.3     1  PHE1       -0.3181
      2 CA          0.4706   -1.0038   -0.8231 C.3     1  PHE1        0.1072
      3 CB          0.9773   -2.3548   -0.3451 C.3     1  PHE1       -0.0020
      4 CG          0.4706   -2.6163    1.0639 C.ar    1  PHE1       -0.0454
      5 CD1         0.1131   -1.5496    1.8718 C.ar    1  PHE1       -0.0585
      6 CE1        -0.0097   -1.8835    3.2412 C.ar    1  PHE1       -0.0615
      7 CZ         -0.1418   -3.1136    3.7033 C.ar    1  PHE1       -0.0617
      8 CE2         0.1613   -4.1252    2.8348 C.ar    1  PHE1       -0.0615
      9 CD2         0.4211   -3.8658    1.5108 C.ar    1  PHE1       -0.0585
     10 C          -1.0494   -1.0038   -0.8231 C.2     1  PHE1        0.3220
     11 O          -1.7594   -0.7794   -2.0322 O.3     1  PHE1       -0.4795
     12 OXT        -1.6848   -1.2047    0.2590 O.2     1  PHE1       -0.2492
     13 H1          0.6206   -0.1257    1.0228 H       1  PHE1        0.1190
     14 H2          1.9806    0.0498    0.0772 H       1  PHE1        0.1190
     15 HA          0.8273   -0.8197   -1.8150 H       1  PHE1        0.0577
     16 HB1         0.6206   -3.1217   -1.0005 H       1  PHE1        0.0334
     17 HB2         2.0473   -2.3548   -0.3451 H       1  PHE1        0.0334
     18 HD1        -0.0550   -0.5625    1.4945 H       1  PHE1        0.0620
     19 HE1         0.0055   -1.0837    3.9519 H       1  PHE1        0.0618
     20 HZ         -0.4685   -3.3081    4.7034 H       1  PHE1        0.0618
     21 HE2         0.1968   -5.1334    3.1914 H       1  PHE1        0.0618
     22 HD2         0.5849   -4.6779    0.8336 H       1  PHE1        0.0620
     23 H          -1.2594   -0.6213   -2.8837 H       1  PHE1        0.2951
@<TRIPOS>BOND
     1     1     2    1
     2     2     3    1
     3     3     4    1
     4     4     5   ar
     5     5     6   ar
     6     6     7   ar
     7     7     8   ar
     8     8     9   ar
     9     4     9   ar
    10     2    10    1
    11    10    11    1
    12    10    12    2
    13     1    13    1
    14     1    14    1
    15     2    15    1
    16     3    16    1
    17     3    17    1
    18     5    18    1
    19     6    19    1
    20     7    20    1
    21     8    21    1
    22     9    22    1
    23    11    23    1
