@<TRIPOS>MOLECULE
Proline
 17 17 0 0 0
SMALL
GASTEIGER

@<TRIPOS>ATOM
      1 O           1.0670    0.0740   -0.0051 O.3     1  PRO1       -0.4795
      2 C           0.3570   -0.7390    0.9175 C.2     1  PRO1        0.3219
      3 OXT         0.9925   -1.4667    1.7433 O.2     1  PRO1       -0.2492
      4 CA         -1.1630   -0.7390    0.9175 C.3     1  PRO1        0.1057
      5 CB         -1.7097    0.5319    1.5064 C.3     1  PRO1       -0.0260
      6 CG         -3.1839    0.1555    1.8440 C.3     1  PRO1       -0.0385
      7 CD         -3.0879   -1.3189    2.2451 C.3     1  PRO1       -0.0033
      8 N          -1.6991   -1.7574    1.8393 N.3     1  PRO1       -0.3041
      9 H           2.0670    0.0740   -0.0051 H       1  PRO1        0.2951
     10 HA         -1.4373   -0.8944   -0.1050 H       1  PRO1        0.0576
     11 HB1        -1.1568    0.8753    2.3557 H       1  PRO1        0.0286
     12 HB2        -1.6698    1.3325    0.7976 H       1  PRO1        0.0286
     13 HG1        -3.6083    0.7709    2.6096 H       1  PRO1        0.0278
     14 HG2        -3.8165    0.2800    0.9901 H       1  PRO1        0.0278
     15 HD1        -3.2582   -1.4576    3.2923 H       1  PRO1        0.0424
     16 HD2        -3.8277   -1.8955    1.7302 H       1  PRO1        0.0424
     17 H          -1.1023   -1.8298    2.6633 H       1  PRO1        0.1227
@<TRIPOS>BOND
     1     1     2    1
     2     2     3    2
     3     2     4    1
     4     4     5    1
     5     5     6    1
     6     6     7    1
     7     7     8    1
     8     4     8    1
     9     1     9    1
    10     4    10    1
    11     5    11    1
    12     5    12    1
    13     6    13    1
    14     6    14    1
    15     7    15    1
    16     7    16    1
    17     8    17    1
