@<TRIPOS>MOLECULE
Proline
 8 8 0 0 0
SMALL
GASTEIGER

@<TRIPOS>ATOM
      1 O           0.9839    0.0782    0.0601 O.co2   1  PRO1       -0.2441
      2 C           2.4039    0.0782    0.0601 C.2     1  PRO1        0.3803
      3 OXT         3.0393    0.7698   -0.7961 O.co2   1  PRO1       -0.2441
      4 CA          3.1639   -0.7489    1.0842 C.3     1  PRO1        0.1758
      5 CB          2.6366   -2.1569    1.0672 C.3     1  PRO1        0.0304
      6 CG          3.0723   -2.7106    2.4574 C.3     1  PRO1        0.0208
      7 CD          2.9765   -1.4854    3.3703 C.3     1  PRO1        0.0893
      8 N           2.8024   -0.3042    2.4429 N.3     1  PRO1       -0.2084
@<TRIPOS>BOND
     1     1     2   ar
     2     2     3   ar
     3     2     4    1
     4     4     5    1
     5     5     6    1
     6     6     7    1
     7     7     8    1
     8     4     8    1
