@<TRIPOS>MOLECULE
Serine
 7 6 0 0 0
SMALL
GASTEIGER

@<TRIPOS>ATOM
      1 C           1.0088    0.0866   -0.0492 C.3     1  UNL1        0.2125
      2 CA          0.5021    1.4138   -0.5898 C.3     1  UNL1        0.2270
      3 C           1.0088    1.6093   -2.0095 C.2     1  UNL1        0.3845
      4 O           0.1829    1.7410   -2.9664 O.co2   1  UNL1       -0.2440
      5 O           2.4049    1.6447   -2.2665 O.co2   1  UNL1       -0.2440
      6 N          -0.9679    1.4138   -0.5898 N.3     1  UNL1       -0.1180
      7 O           2.4288    0.0866   -0.0492 O.3     1  UNL1       -0.2182
@<TRIPOS>BOND
     1     1     2    1
     2     2     3    1
     3     3     4   ar
     4     3     5   ar
     5     2     6    1
     6     1     7    1
