@<TRIPOS>MOLECULE
Serine
 14 13 0 0 0
SMALL
GASTEIGER

@<TRIPOS>ATOM
      1 C           1.0364   -0.0033   -0.0931 C.3     1  UNL1        0.0697
      2 CA          0.5298   -0.8379   -1.2581 C.3     1  UNL1        0.1265
      3 C           1.0364   -2.2641   -1.1178 C.2     1  UNL1        0.3240
      4 O           0.2105   -3.2254   -1.0233 O.2     1  UNL1       -0.2492
      5 O           2.4325   -2.5223   -1.0924 O.3     1  UNL1       -0.4795
      6 N          -0.9402   -0.8379   -1.2581 N.3     1  UNL1       -0.3166
      7 O           0.5631   -0.5561    1.1263 O.3     1  UNL1       -0.3929
      8 H1          0.6798    1.0006   -0.1918 H       1  UNL1        0.0578
      9 H2          2.1064   -0.0033   -0.0931 H       1  UNL1        0.0578
     10 HA          0.8864   -0.4214   -2.1769 H       1  UNL1        0.0597
     11 H           2.7658   -3.4606   -1.0002 H       1  UNL1        0.2951
     12 H1         -1.2802   -1.3979   -2.0398 H       1  UNL1        0.1190
     13 H2         -1.2802   -1.2349   -0.3822 H       1  UNL1        0.1190
     14 H           0.8964   -1.4943    1.2186 H       1  UNL1        0.2095
@<TRIPOS>BOND
     1     1     2    1
     2     2     3    1
     3     3     4    2
     4     3     5    1
     5     2     6    1
     6     1     7    1
     7     1     8    1
     8     1     9    1
     9     2    10    1
    10     5    11    1
    11     6    12    1
    12     6    13    1
    13     7    14    1
