@<TRIPOS>MOLECULE
Threonine
 17 16 0 0 0
SMALL
GASTEIGER

@<TRIPOS>ATOM
      1 CG2         1.0290   -2.3380    0.5990 C.3     1  THR1       -0.0369
      2 CB          0.5223   -1.3412   -0.4307 C.3     1  THR1        0.0779
      3 CA          1.0290    0.0489   -0.0823 C.3     1  THR1        0.1291
      4 C           1.8687   -0.2512    1.1486 C.2     1  THR1        0.3243
      5 O           3.1369   -0.2619    1.0655 O.2     1  THR1       -0.2492
      6 OXT         1.2364   -0.5196    2.3914 O.3     1  THR1       -0.4795
      7 N           1.9130    0.2901   -1.2317 N.3     1  THR1       -0.3164
      8 OG1        -0.8977   -1.3412   -0.4307 O.3     1  THR1       -0.3900
      9 HG21        0.8132   -1.9343    1.5661 H       1  THR1        0.0255
     10 HG22        2.0677   -2.5880    0.5405 H       1  THR1        0.0255
     11 HG23        0.4408   -3.2176    0.4403 H       1  THR1        0.0255
     12 HB          0.8790   -1.6181   -1.4007 H       1  THR1        0.0611
     13 HA          0.4315    0.9183    0.0968 H       1  THR1        0.0600
     14 HXT         1.7888   -0.7170    3.2012 H       1  THR1        0.2951
     15 H1          2.5205    1.0850   -1.0325 H       1  THR1        0.1190
     16 H2          2.4826   -0.5386   -1.4024 H       1  THR1        0.1190
     17 HG1        -1.2310   -1.0824    0.4759 H       1  THR1        0.2098
@<TRIPOS>BOND
     1     3     4    1
     2     4     5    2
     3     4     6    1
     4     3     7    1
     5     2     8    1
     6     1     9    1
     7     1    10    1
     8     1    11    1
     9     2    12    1
    10     3    13    1
    11     6    14    1
    12     7    15    1
    13     7    16    1
    14     8    17    1
    15     2     3    1
    16     2     1    1
