@<TRIPOS>MOLECULE
Threonine
 8 7 0 0 0
SMALL
GASTEIGER

@<TRIPOS>ATOM
      1 CG2         2.9999   -0.1112   -1.5101 C.3     1  THR1        0.0377
      2 CB          2.4932    0.0444   -0.0855 C.3     1  THR1        0.1805
      3 CA          0.9732    0.0444   -0.0855 C.3     1  THR1        0.2243
      4 C           0.4666   -1.3477   -0.4255 C.2     1  THR1        0.3844
      5 O          -0.2641   -1.5253   -1.4501 O.co2   1  THR1       -0.2440
      6 OXT         0.8096   -2.4498    0.4016 O.co2   1  THR1       -0.2440
      7 N           0.4832    1.0024   -1.0870 N.3     1  THR1       -0.1181
      8 OG1         2.9665    1.2697    0.4541 O.3     1  THR1       -0.2210
@<TRIPOS>BOND
     1     3     4    1
     2     4     5   ar
     3     4     6   ar
     4     3     7    1
     5     2     8    1
     6     2     3    1
     7     2     1    1
