@<TRIPOS>MOLECULE
Tryptophan
 15 16 0 0 0
SMALL
GASTEIGER

@<TRIPOS>ATOM
      1 CD1         1.0980   -4.7325    3.0642 C.ar    1  TRP1        0.0946
      2 NE1         1.3113   -6.1143    3.3371 N.ar    1  TRP1       -0.2442
      3 CE2         0.7479   -6.8301    2.2620 C.ar    1  TRP1        0.0810
      4 CZ2         0.7620   -8.1848    1.9593 C.ar    1  TRP1        0.0191
      5 CH2         0.1872   -8.5681    0.7522 C.ar    1  TRP1        0.0015
      6 CZ3        -0.3907   -7.6478   -0.1017 C.ar    1  TRP1        0.0001
      7 CE3        -0.4066   -6.3274    0.2020 C.ar    1  TRP1        0.0012
      8 CD2         0.1797   -5.8967    1.3885 C.ar    1  TRP1        0.0152
      9 CG          0.4079   -4.5831    1.9223 C.ar    1  TRP1        0.0004
     10 CB         -0.0469   -3.2688    1.3089 C.3     1  TRP1        0.0586
     11 CA         -0.8290   -3.5420    0.0344 C.3     1  TRP1        0.1987
     12 N          -1.9995   -2.6545   -0.0219 N.3     1  TRP1       -0.1205
     13 C          -1.2903   -4.9902    0.0236 C.2     1  TRP1        0.3822
     14 O          -2.5307   -5.2617   -0.0284 O.co2   1  TRP1       -0.2440
     15 OXT        -0.3352   -6.0400    0.0717 O.co2   1  TRP1       -0.2440
@<TRIPOS>BOND
     1     1     2   ar
     2     2     3   ar
     3     3     4   ar
     4     4     5   ar
     5     5     6   ar
     6     6     7   ar
     7     7     8   ar
     8     3     8   ar
     9     8     9   ar
    10     1     9   ar
    11     9    10    1
    12    11    13    1
    13    13    14   ar
    14    13    15   ar
    15    11    12    1
    16    11    10    1
