@<TRIPOS>MOLECULE
Tryptophan
 27 28 0 0 0
SMALL
GASTEIGER

@<TRIPOS>ATOM
      1 CD1        -5.1983   -3.8234    2.5217 C.ar    1  TRP1        0.0060
      2 NE1        -5.9448   -3.9689    3.7262 N.ar    1  TRP1       -0.3604
      3 CE2        -6.1811   -2.6685    4.2147 C.ar    1  TRP1        0.0467
      4 CZ2        -6.9409   -2.2192    5.2861 C.ar    1  TRP1       -0.0378
      5 CH2        -7.0517   -0.8423    5.4483 C.ar    1  TRP1       -0.0598
      6 CZ3        -6.4196    0.0427    4.5954 C.ar    1  TRP1       -0.0611
      7 CE3        -5.6744   -0.4020    3.5547 C.ar    1  TRP1       -0.0523
      8 CD2        -5.5570   -1.7721    3.3404 C.ar    1  TRP1        0.0029
      9 CG         -4.9386   -2.5272    2.2869 C.ar    1  TRP1       -0.0204
     10 CB         -4.1392   -1.9640    1.1232 C.3     1  TRP1       -0.0001
     11 CA         -2.9288   -2.8817    1.1815 C.3     1  TRP1        0.1073
     12 N          -2.0685   -2.6327    0.0158 N.3     1  TRP1       -0.3181
     13 C          -3.3901   -4.3300    1.1707 C.2     1  TRP1        0.3220
     14 O          -3.1004   -5.0965    2.1422 O.2     1  TRP1       -0.2492
     15 OXT        -4.1447   -4.8266    0.0751 O.3     1  TRP1       -0.4795
     16 HD1        -4.8886   -4.6321    1.8933 H       1  TRP1        0.0810
     17 HE1        -6.2491   -4.8443    4.1522 H       1  TRP1        0.1653
     18 HZ2        -7.4198   -2.9015    5.9569 H       1  TRP1        0.0638
     19 HH2        -7.6416   -0.4582    6.2542 H       1  TRP1        0.0618
     20 HZ3        -6.5202    1.0953    4.7593 H       1  TRP1        0.0618
     21 HE3        -5.1822    0.2917    2.9056 H       1  TRP1        0.0624
     22 HB1        -4.6091   -2.2381    0.2018 H       1  TRP1        0.0334
     23 HB2        -4.1002   -0.8975    1.2003 H       1  TRP1        0.0334
     24 HA         -2.3783   -2.6894    2.0786 H       1  TRP1        0.0577
     25 H1         -1.0937   -2.7787    0.2779 H       1  TRP1        0.1190
     26 H2         -2.1950   -1.6718   -0.3021 H       1  TRP1        0.1190
     27 HXT        -4.4482   -5.7794    0.0679 H       1  TRP1        0.2951
@<TRIPOS>BOND
     1     1     2   ar
     2     2     3   ar
     3     3     4   ar
     4     4     5   ar
     5     5     6   ar
     6     6     7   ar
     7     7     8   ar
     8     3     8   ar
     9     8     9   ar
    10     1     9   ar
    11     9    10    1
    12    11    13    1
    13    13    14    2
    14    13    15    1
    15     1    16    1
    16     2    17    1
    17     4    18    1
    18     5    19    1
    19     6    20    1
    20     7    21    1
    21    10    22    1
    22    10    23    1
    23    11    24    1
    24    12    25    1
    25    12    26    1
    26    15    27    1
    27    11    12    1
    28    11    10    1
