@<TRIPOS>MOLECULE
Tyrosine
 24 24 0 0 0
SMALL
GASTEIGER

@<TRIPOS>ATOM
      1 N           0.9130    0.0427   -0.0245 N.3     1  TYR1       -0.3181
      2 CA          0.4230   -1.2865    0.3676 C.3     1  TYR1        0.1072
      3 CB          0.9296   -1.6226    1.7607 C.3     1  TYR1       -0.0020
      4 CG          0.4230   -0.5842    2.7484 C.ar    1  TYR1       -0.0451
      5 CD1         0.8171    0.7152    2.5164 C.ar    1  TYR1       -0.0551
      6 CE1         0.5391    1.7288    3.4394 C.ar    1  TYR1       -0.0199
      7 CZ         -0.1732    1.3743    4.6036 C.ar    1  TYR1        0.1169
      8 OH         -0.5069    2.2918    5.5395 O.3     1  TYR1       -0.5068
      9 CE2        -0.5351    0.0691    4.8377 C.ar    1  TYR1       -0.0199
     10 CD2        -0.2445   -0.9075    3.9048 C.ar    1  TYR1       -0.0551
     11 C          -1.0970   -1.2865    0.3676 C.2     1  TYR1        0.3220
     12 O          -1.8070   -2.1776   -0.4799 O.3     1  TYR1       -0.4795
     13 OXT        -1.7325   -0.4890    1.1262 O.2     1  TYR1       -0.2492
     14 H1          0.5730    0.7396    0.6382 H       1  TYR1        0.1190
     15 H2          1.9330    0.0427   -0.0245 H       1  TYR1        0.1190
     16 HA          0.7796   -2.0175   -0.3276 H       1  TYR1        0.0577
     17 HB1         0.5730   -2.5902    2.0462 H       1  TYR1        0.0334
     18 HB2         1.9996   -1.6226    1.7607 H       1  TYR1        0.0334
     19 HD1         1.3441    0.9529    1.6160 H       1  TYR1        0.0621
     20 HE1         0.8555    2.7366    3.2683 H       1  TYR1        0.0654
     21 HH         -0.2621    3.2523    5.4076 H       1  TYR1        0.2921
     22 HE2        -1.0422   -0.1908    5.7434 H       1  TYR1        0.0654
     23 HD2        -0.5407   -1.9200    4.0837 H       1  TYR1        0.0621
     24 H          -1.3070   -2.8052   -1.0767 H       1  TYR1        0.2951
@<TRIPOS>BOND
     1     1     2    1
     2     2     3    1
     3     3     4    1
     4     4     5   ar
     5     5     6   ar
     6     6     7   ar
     7     7     8    1
     8     7     9   ar
     9     9    10   ar
    10     4    10   ar
    11     2    11    1
    12    11    12    1
    13    11    13    2
    14     1    14    1
    15     1    15    1
    16     2    16    1
    17     3    17    1
    18     3    18    1
    19     5    19    1
    20     6    20    1
    21     8    21    1
    22     9    22    1
    23    10    23    1
    24    12    24    1
