@<TRIPOS>MOLECULE
Tyrosine
 13 13 0 0 0
SMALL
GASTEIGER

@<TRIPOS>ATOM
      1 N           1.0731    0.0211   -0.0649 N.3     1  TYR1       -0.1205
      2 CA          2.5431    0.0211   -0.0649 C.3     1  TYR1        0.1986
      3 CB          3.0498    0.7254    1.1831 C.3     1  TYR1        0.0569
      4 CG          2.5431    2.1584    1.1971 C.ar    1  TYR1       -0.0200
      5 CD1         3.4392    3.2040    1.2378 C.ar    1  TYR1       -0.0009
      6 CE1         2.9986    4.5316    1.2394 C.ar    1  TYR1        0.0417
      7 CZ          1.6080    4.7582    1.1796 C.ar    1  TYR1        0.1957
      8 OH          1.0922    6.0080    1.1528 O.3     1  TYR1       -0.2866
      9 CE2         0.7230    3.7065    1.1693 C.ar    1  TYR1        0.0417
     10 CD2         1.1923    2.4072    1.1686 C.ar    1  TYR1       -0.0009
     11 C           3.0498   -1.4119   -0.0789 C.2     1  TYR1        0.3822
     12 O           2.1270   -2.4912   -0.0894 O.co2   1  TYR1       -0.2440
     13 OXT         4.2993   -1.6442   -0.0811 O.co2   1  TYR1       -0.2440
@<TRIPOS>BOND
     1     1     2    1
     2     2     3    1
     3     3     4    1
     4     4     5   ar
     5     5     6   ar
     6     6     7   ar
     7     7     8    1
     8     7     9   ar
     9     9    10   ar
    10     4    10   ar
    11     2    11    1
    12    11    12   ar
    13    11    13   ar
