@<TRIPOS>MOLECULE
Valine
 8 7 0 0 0
SMALL
GASTEIGER

@<TRIPOS>ATOM
      1 CG1         1.0866    0.0081    0.0494 C.3     1  VAL1        0.0021
      2 CB          2.6066    0.0081    0.0494 C.3     1  VAL1        0.0287
      3 CG2         3.1132    1.4177    0.3076 C.3     1  VAL1        0.0021
      4 CA          3.1132   -0.9203    1.1411 C.3     1  VAL1        0.1943
      5 C           2.6065   -2.3299    0.8830 C.2     1  VAL1        0.3819
      6 O           3.4324   -3.2801    0.7090 O.co2   1  VAL1       -0.2441
      7 OXT         1.2105   -2.5851    0.8363 O.co2   1  VAL1       -0.2441
      8 N           4.5832   -0.9203    1.1411 N.3     1  VAL1       -0.1208
@<TRIPOS>BOND
     1     1     2    1
     2     2     3    1
     3     2     4    1
     4     4     5    1
     5     5     6   ar
     6     5     7   ar
     7     4     8    1
