@<TRIPOS>MOLECULE
Valine
 19 18 0 0 0
SMALL
GASTEIGER

@<TRIPOS>ATOM
      1 CG1         0.9736   -0.0955    0.0138 C.3     1  VAL1       -0.0607
      2 CB          0.4669    0.3178    1.3859 C.3     1  VAL1       -0.0211
      3 CG2         0.9736    1.7128    1.7141 C.3     1  VAL1       -0.0607
      4 CA         -1.0531    0.3178    1.3859 C.3     1  VAL1        0.1056
      5 C          -1.5598   -1.0772    1.0577 C.2     1  VAL1        0.3220
      6 O          -2.2904   -1.7001    1.8904 O.2     1  VAL1       -0.2492
      7 OXT        -1.2167   -1.6844   -0.1792 O.3     1  VAL1       -0.4795
      8 N          -1.5431    0.7175    2.7130 N.3     1  VAL1       -0.3182
      9 HG11        0.6169    0.5956   -0.7212 H       1  VAL1        0.0233
     10 HG12        0.6169   -1.0775   -0.2173 H       1  VAL1        0.0233
     11 HG13        2.0436   -0.0955    0.0138 H       1  VAL1        0.0233
     12 HB          0.8236   -0.3733    2.1209 H       1  VAL1        0.0316
     13 HG21        0.6169    2.4039    0.9792 H       1  VAL1        0.0233
     14 HG22        0.6169    2.0037    2.6801 H       1  VAL1        0.0233
     15 HG23        2.0436    1.7128    1.7141 H       1  VAL1        0.0233
     16 HA         -1.4097    1.0089    0.6510 H       1  VAL1        0.0576
     17 HXT        -1.5500   -2.6021   -0.3951 H       1  VAL1        0.2951
     18 H1         -2.5631    0.7175    2.7130 H       1  VAL1        0.1190
     19 H2         -1.2031    0.0587    3.4136 H       1  VAL1        0.1190
@<TRIPOS>BOND
     1     1     2    1
     2     2     3    1
     3     2     4    1
     4     4     5    1
     5     5     6    2
     6     5     7    1
     7     4     8    1
     8     1     9    1
     9     1    10    1
    10     1    11    1
    11     2    12    1
    12     3    13    1
    13     3    14    1
    14     3    15    1
    15     4    16    1
    16     7    17    1
    17     8    18    1
    18     8    19    1
